8
Lattice="12.0 0.0 0.0 0.0 12.0 0.0 0.0 0.0 12.0" Properties=species:S:1:pos:R:3:forces:R:3 energy=-2694.8624247979765 stress="0.0 0.0 0.0 0.0 0.0 0.0 0.0 0.0 0.0" pbc="T T T"
Na       3.86470766       3.72085638       4.21569556      -0.00186095      -0.01499023       0.00394566
Cl       5.43080951       6.96996202       7.28173141      -0.00318058       0.02479020       0.01575104
O        2.52019224       2.60825963       2.67929060       0.00143356      -0.00170748      -0.01002334
H        2.08539043       2.99876243       1.89264120      -0.00729920       0.00849589      -0.00562617
H        2.31711235       1.65197643       2.61433000      -0.00410939      -0.01766387       0.01191952
O        5.11120809       5.01245357       5.42830940       0.01606948       0.00478632      -0.03197085
H        4.80166277       5.40513659       6.29470526       0.00205590       0.00250708      -0.00322683
H        5.86891694       5.63259297       5.32363258      -0.00310882      -0.00621791       0.01923098
