6
Lattice="20.0 0.0 0.0 0.0 20.0 0.0 0.0 0.0 20.0" Properties=species:S:1:pos:R:3 pbc="T T T"
O        6.44899300       7.88548000       8.00000000
H        6.06574100       8.76250300       8.00000000
H        7.40032300       8.04071200       8.00000000
O        9.35062500       8.11146900       8.00000000
H        9.68039800       7.62625900       7.24143900
H        9.68039800       7.62625900       8.75856100
