6
Lattice="20.0 0.0 0.0 0.0 20.0 0.0 0.0 0.0 20.0" Properties=species:S:1:pos:R:3 pbc="T T T"
O        7.04366735       7.87936164       8.00000000
H        6.69246483       8.76970327       8.00000000
H        8.00000000       8.00000000       8.00000000
O       11.90317022       8.00000000       8.00000000
H       12.21513455       7.50315271       7.24143900
H       12.21513455       7.50315271       8.75856100
